Version 4
SHEET 1 880 680
WIRE 144 160 16 160
WIRE 288 160 224 160
WIRE 448 192 240 192
WIRE 240 272 240 192
WIRE 240 272 192 272
WIRE -272 288 -304 288
WIRE -160 288 -272 288
WIRE -80 288 -96 288
WIRE 16 288 16 160
WIRE 16 288 0 288
WIRE 64 288 16 288
WIRE 400 304 192 304
WIRE 64 320 16 320
WIRE 240 336 192 336
WIRE 288 336 288 160
WIRE 288 336 240 336
WIRE -304 352 -304 288
WIRE 16 352 16 320
WIRE 400 400 400 384
WIRE -304 448 -304 432
FLAG 448 272 0
FLAG 16 352 0
FLAG -304 448 0
FLAG 240 336 Output
FLAG -272 288 Input
FLAG 400 400 0
SYMBOL res 16 272 R90
WINDOW 0 0 56 VBottom 2
WINDOW 3 32 56 VTop 2
SYMATTR InstName R1
SYMATTR Value 20k
SYMBOL cap -96 272 R90
WINDOW 0 0 32 VBottom 2
WINDOW 3 32 32 VTop 2
SYMATTR InstName C1
SYMATTR Value 1µ
SYMBOL res 240 144 R90
WINDOW 0 0 56 VBottom 2
WINDOW 3 32 56 VTop 2
SYMATTR InstName R2
SYMATTR Value 68k
SYMBOL voltage -304 336 R0
SYMATTR InstName V1
SYMATTR Value wavefile=input.wav
SYMBOL voltage 448 176 R0
WINDOW 123 0 0 Left 0
WINDOW 39 0 0 Left 0
SYMATTR InstName V2
SYMATTR Value 4.5
SYMBOL voltage 400 288 R0
WINDOW 123 0 0 Left 0
WINDOW 39 0 0 Left 0
SYMATTR InstName V3
SYMATTR Value -4.5
SYMBOL AutoGenerated\\LM741 128 304 R0
SYMATTR InstName U1
TEXT -280 456 Left 2 !.include lm741.lib
TEXT -328 96 Left 2 !.wave lm741_amplifier.wav 16 44.1k Output
TEXT -320 128 Left 2 !.tran 0 10 1.1
