Version 4
SHEET 1 880 680
WIRE -368 -2080 -400 -2080
WIRE -272 -2080 -304 -2080
WIRE -400 -2032 -400 -2080
WIRE -400 -2032 -480 -2032
WIRE -272 -2032 -272 -2080
WIRE -144 -2032 -272 -2032
WIRE -80 -2032 -144 -2032
WIRE 48 -2032 0 -2032
WIRE 48 -2016 48 -2032
WIRE -480 -2000 -480 -2032
WIRE -400 -1984 -400 -2032
WIRE -368 -1984 -400 -1984
WIRE -272 -1984 -272 -2032
WIRE -272 -1984 -304 -1984
WIRE 48 -1920 48 -1936
WIRE -480 -1888 -480 -1936
WIRE -448 -1888 -480 -1888
WIRE -336 -1888 -368 -1888
WIRE -288 -1888 -336 -1888
WIRE -144 -1888 -144 -2032
WIRE -144 -1888 -208 -1888
WIRE -336 -1872 -336 -1888
WIRE -144 -1808 -144 -1888
WIRE -64 -1808 -144 -1808
WIRE 48 -1808 0 -1808
WIRE 128 -1808 48 -1808
WIRE -336 -1792 -336 -1808
WIRE -144 -1792 -144 -1808
WIRE -592 -1744 -752 -1744
WIRE -480 -1744 -480 -1888
WIRE -480 -1744 -528 -1744
WIRE -208 -1744 -480 -1744
WIRE -480 -1712 -480 -1744
WIRE -144 -1680 -144 -1696
WIRE -144 -1680 -192 -1680
WIRE -112 -1680 -144 -1680
WIRE -752 -1664 -752 -1744
WIRE -192 -1664 -192 -1680
WIRE -112 -1664 -112 -1680
WIRE -752 -1568 -752 -1584
WIRE -480 -1568 -480 -1648
WIRE -304 -1568 -480 -1568
WIRE -192 -1568 -192 -1600
WIRE -192 -1568 -304 -1568
WIRE -112 -1568 -112 -1584
WIRE -112 -1568 -192 -1568
WIRE -304 -1552 -304 -1568
FLAG -752 -1568 0
FLAG -304 -1552 0
FLAG -752 -1744 Input
FLAG 48 -1808 Output
FLAG -336 -1792 0
FLAG 48 -1920 0
SYMBOL npn -208 -1792 R0
SYMATTR InstName Q1
SYMATTR Value BC337-40
SYMBOL cap -464 -1648 R180
WINDOW 0 24 56 Left 2
WINDOW 3 24 8 Left 2
SYMATTR InstName C2
SYMATTR Value 10n
SYMBOL voltage -752 -1680 R0
SYMATTR InstName V1
SYMATTR Value wavefile=input.wav
SYMBOL cap -528 -1760 R90
WINDOW 0 0 32 VBottom 2
WINDOW 3 32 32 VTop 2
SYMATTR InstName C1
SYMATTR Value 100n
SYMBOL res -352 -1904 R90
WINDOW 0 0 56 VBottom 2
WINDOW 3 32 56 VTop 2
SYMATTR InstName R1
SYMATTR Value 100k
SYMBOL res -192 -1904 R90
WINDOW 0 0 56 VBottom 2
WINDOW 3 32 56 VTop 2
SYMATTR InstName R2
SYMATTR Value 100k
SYMBOL cap -352 -1872 R0
SYMATTR InstName C3
SYMATTR Value 10n
SYMBOL cap -496 -2000 R0
SYMATTR InstName C4
SYMATTR Value 100n
SYMBOL res 16 -2048 R90
WINDOW 0 0 56 VBottom 2
WINDOW 3 32 56 VTop 2
SYMATTR InstName R3
SYMATTR Value 51k
SYMBOL voltage 48 -2032 R0
WINDOW 123 0 0 Left 0
WINDOW 39 0 0 Left 0
SYMATTR InstName V2
SYMATTR Value 9
SYMBOL cap -208 -1664 R0
SYMATTR InstName C5
SYMATTR Value 22”
SYMBOL res -128 -1680 R0
SYMATTR InstName R4
SYMATTR Value 470
SYMBOL cap 0 -1824 R90
WINDOW 0 0 32 VBottom 2
WINDOW 3 32 32 VTop 2
SYMATTR InstName C6
SYMATTR Value 100n
SYMBOL diode -304 -2096 R90
WINDOW 0 0 32 VBottom 2
WINDOW 3 32 32 VTop 2
SYMATTR InstName D1
SYMBOL diode -368 -1968 R270
WINDOW 0 32 32 VTop 2
WINDOW 3 0 32 VBottom 2
SYMATTR InstName D2
TEXT -768 -1520 Left 2 !.wave fuzz_effect.wav 16 44.1k Output
TEXT -720 -1552 Left 2 !.tran 0 10 1.1
TEXT -1088 -1488 Left 2 !.model 1N4007 D(Is=90p Rs=40m Cjo=30p N=1.4 TT=5u Iave=1 Vpk=1000 mfg=Diodes_Inc type=silicon)
